Circuit: * C:\VirtualFence\ShockCircuit.asc

Limiting rise time of source v3 to 0.003
Limiting fall time of source v3 to 0.003
Limiting rise time of source v2 to 0.003
Limiting fall time of source v2 to 0.003
WARNING: Less than two connections to node VOUT.  This node is used by L2.
Direct Newton iteration for .op point succeeded.

Date: Thu Oct 17 12:16:19 2019
Total elapsed time: 16.402 seconds.

tnom = 27
temp = 27
method = modified trap
totiter = 7820974
traniter = 7820943
tranpoints = 2088708
accept = 1458301
rejected = 630407
matrix size = 24
fillins = 21
solver = Normal
Matrix Compiler1: 2.25 KB object code size  0.3/0.2/[0.1]
Matrix Compiler2: off  [0.1]/0.2/0.2

